* NGSPICE file created from counter.ext - technology: gf180mcuD

.subckt gf180mcu_fd_sc_mcu7t5v0__fillcap_4 VDD VSS VNW VPW a_36_472# a_124_375#
X0 a_124_375# a_36_472# VSS.t0 VPW.t0 nfet_05v0 ad=0.3608p pd=2.52u as=0.3608p ps=2.52u w=0.82u l=1u
X1 VDD.t0 a_124_375# a_36_472# VNW.t0 pfet_05v0 ad=0.5368p pd=3.32u as=0.5368p ps=3.32u w=1.22u l=1u
R0 VSS VSS.t0 8.62532
R1 VDD VDD.t0 4.47435
R2 VNW VNW.t0 306.452
R3 VPW VPW.t0 875.404
C0 a_36_472# VNW 0.04598f
C1 a_124_375# a_36_472# 0.30831f
C2 a_124_375# VNW 0.19423f
C3 VDD VSS 0.00659f
C4 VSS a_36_472# 0.15579f
C5 VSS VNW 0.00441f
C6 VSS a_124_375# 0.08363f
C7 VDD a_36_472# 0.09598f
C8 VDD VNW 0.07903f
C9 VDD a_124_375# 0.14099f
C10 VSS VPW 0.4239f
C11 VDD VPW 0.42115f
C12 VNW VPW 1.07657f
C13 a_36_472# VPW 0.28579f
C14 a_124_375# VPW 0.12596f
C15 VNW.t0 VPW 0.21056f
C16 VDD.t0 VPW 0.06623f
C17 VSS.t0 VPW 0.04155f
.ends

.subckt gf180mcu_fd_sc_mcu7t5v0__xnor2_1 VDD VSS ZN A1 A2 VNW VPW a_272_93# a_716_68#
+ a_930_497# a_64_93#
X0 ZN.t0 a_64_93# VDD.t0 VNW.t0 pfet_05v0 ad=0.31207p pd=1.665u as=0.34437p ps=1.895u w=1.095u l=0.5u
X1 a_272_93# A2.t1 a_64_93# VPW.t3 nfet_05v0 ad=57.59999f pd=0.68u as=0.1584p ps=1.6u w=0.36u l=0.6u
X2 VSS A1.t1 a_272_93# VPW.t1 nfet_05v0 ad=0.218p pd=1.52u as=57.59999f ps=0.68u w=0.36u l=0.6u
X3 a_716_68# a_64_93# VSS VPW.t0 nfet_05v0 ad=0.2132p pd=1.34u as=0.218p ps=1.52u w=0.82u l=0.6u
X4 VDD.t2 A2.t2 a_930_497# VNW.t4 pfet_05v0 ad=0.4818p pd=3.07u as=0.55297p ps=2.105u w=1.095u l=0.5u
X5 ZN.t3 A1.t0 a_716_68# VPW.t2 nfet_05v0 ad=0.4161p pd=1.905u as=0.2132p ps=1.34u w=0.82u l=0.6u
X6 a_64_93# A2.t3 VDD.t3 VNW.t3 pfet_05v0 ad=0.1456p pd=1.08u as=0.2464p ps=2u w=0.56u l=0.5u
X7 a_716_68# A2.t0 ZN.t1 VPW.t4 nfet_05v0 ad=0.3608p pd=2.52u as=0.4161p ps=1.905u w=0.82u l=0.6u
X8 VDD.t1 A1.t3 a_64_93# VNW.t1 pfet_05v0 ad=0.34437p pd=1.895u as=0.1456p ps=1.08u w=0.56u l=0.5u
X9 a_930_497# A1.t2 ZN.t2 VNW.t2 pfet_05v0 ad=0.55297p pd=2.105u as=0.31207p ps=1.665u w=1.095u l=0.5u
R0 ZN ZN.n1 7.28458
R1 ZN ZN.n0 6.00211
R2 ZN.n1 ZN.t1 3.6883
R3 ZN.n1 ZN.t3 3.6883
R4 ZN.n0 ZN.t0 1.98224
R5 ZN.n0 ZN.t2 1.6626
R6 VDD VDD.t3 8.64224
R7 VDD.n0 VDD.t1 6.7505
R8 VDD.n1 VDD.n0 5.34344
R9 VDD.n1 VDD.t2 4.99238
R10 VDD.n0 VDD.t0 1.66185
R11 VDD VDD.n1 0.368065
R12 A2.n0 A2.t2 20.5135
R13 A2.n1 A2.t3 18.5425
R14 A2.n1 A2.t1 14.053
R15 A2.n0 A2.t0 11.4372
R16 A2 A2.n1 9.08093
R17 A2 A2.n0 8.96449
R18 A1.n1 A1.t3 20.2945
R19 A1.n0 A1.t0 16.3282
R20 A1.n0 A1.t2 15.6225
R21 A1.n1 A1.t1 12.301
R22 A1 A1.n0 8.4405
R23 A1 A1.n1 8.36272
R24 VNW.t2 VNW.t4 564.769
R25 VNW.t1 VNW.t0 501.932
R26 VNW.t0 VNW.t2 413.127
R27 VNW.t3 VNW.t1 393.822
R28 VNW VNW.t3 256.757
R29 VPW.t2 VPW.t4 2315.07
R30 VPW.t1 VPW.t0 1929.22
R31 VPW.t0 VPW.t2 1662.1
R32 VPW.t3 VPW.t1 1365.3
R33 VPW VPW.t3 1068.49
C0 ZN VSS 0.00474f
C1 A2 VDD 0.16669f
C2 a_64_93# VSS 0.3535f
C3 a_930_497# ZN 0.03123f
C4 a_64_93# a_930_497# 0
C5 VSS VDD 0.01142f
C6 a_930_497# VDD 0.01437f
C7 a_272_93# VSS 0.00372f
C8 a_716_68# VNW 0.00323f
C9 a_716_68# A2 0.02593f
C10 ZN A1 0.02385f
C11 a_64_93# A1 0.36559f
C12 VSS a_716_68# 0.70652f
C13 A1 VDD 0.04054f
C14 a_64_93# ZN 0.02696f
C15 VNW A2 0.35997f
C16 ZN VDD 0.4908f
C17 a_64_93# VDD 0.31457f
C18 VSS VNW 0.00897f
C19 VSS A2 0.03599f
C20 a_64_93# a_272_93# 0.00372f
C21 a_930_497# A2 0.01236f
C22 a_716_68# A1 0.06672f
C23 ZN a_716_68# 0.38357f
C24 a_64_93# a_716_68# 0.00587f
C25 VNW A1 0.314f
C26 a_716_68# VDD 0.00191f
C27 A1 A2 0.72514f
C28 ZN VNW 0.02691f
C29 a_64_93# VNW 0.16451f
C30 ZN A2 0.82576f
C31 VSS A1 0.04585f
C32 a_64_93# A2 0.47794f
C33 VNW VDD 0.22108f
C34 VSS VPW 1.65248f
C35 ZN VPW 1.00575f
C36 VDD VPW 0.60491f
C37 A2 VPW 1.37546f
C38 A1 VPW 0.73346f
C39 VNW VPW 2.66751f
C40 a_716_68# VPW 0.0174f
C41 a_64_93# VPW 0.26806f
C42 VNW.t4 VPW 0.31917f
C43 VNW.t2 VPW 0.18186f
C44 VNW.t0 VPW 0.16489f
C45 VNW.t1 VPW 0.16141f
C46 VNW.t3 VPW 0.11723f
C47 A1.t2 VPW 0.18733f
C48 A1.t0 VPW 0.20877f
C49 A1.n0 VPW 0.25345f
C50 A1.t3 VPW 0.16351f
C51 A1.t1 VPW 0.11914f
C52 A1.n1 VPW 0.2727f
C53 A2.t2 VPW 0.30129f
C54 A2.t0 VPW 0.22584f
C55 A2.n0 VPW 0.36927f
C56 A2.t3 VPW 0.2028f
C57 A2.t1 VPW 0.18221f
C58 A2.n1 VPW 0.38676f
C59 VDD.t0 VPW 0.01033f
C60 VDD.t1 VPW 0.02961f
C61 VDD.n0 VPW 0.0957f
C62 VDD.t2 VPW 0.11175f
C63 VDD.n1 VPW 0.74056f
C64 VDD.t3 VPW 0.03608f
C65 ZN.t2 VPW 0.0837f
C66 ZN.t0 VPW 0.0998f
C67 ZN.n0 VPW 0.22212f
C68 ZN.t1 VPW 0.11572f
C69 ZN.t3 VPW 0.11572f
C70 ZN.n1 VPW 0.23776f
.ends

.subckt gf180mcu_fd_sc_mcu7t5v0__dlyb_1 VDD I VSS Z VNW VPW a_671_644# a_895_68# a_523_68#
+ a_47_68# a_503_644# a_1147_68# a_1127_622#
X0 a_523_68# a_47_68# VSS.t2 VPW.t4 nfet_05v0 ad=43.2f pd=0.6u as=93.59999f ps=0.88u w=0.36u l=0.6u
X1 a_671_644# a_47_68# a_523_68# VPW.t5 nfet_05v0 ad=0.369p pd=2.77u as=43.2f ps=0.6u w=0.36u l=0.6u
X2 a_503_644# a_47_68# VDD.t3 VNW.t4 pfet_05v0 ad=61.19999f pd=0.7u as=0.1116p ps=0.98u w=0.36u l=0.5u
X3 VDD.t0 a_671_644# a_1127_622# VNW.t2 pfet_05v0 ad=0.379p pd=2.37u as=61.19999f ps=0.7u w=0.36u l=0.5u
X4 VDD.t2 I.t1 a_47_68# VNW.t0 pfet_05v0 ad=0.1116p pd=0.98u as=0.3852p ps=2.86u w=0.36u l=0.5u
X5 Z.t1 a_895_68# VSS.t1 VPW.t3 nfet_05v0 ad=0.3608p pd=2.52u as=0.28262p ps=1.87u w=0.82u l=0.6u
X6 a_1147_68# a_671_644# a_895_68# VPW.t1 nfet_05v0 ad=43.8f pd=0.605u as=0.3705p ps=2.77u w=0.365u l=0.6u
X7 a_1127_622# a_671_644# a_895_68# VNW.t1 pfet_05v0 ad=61.19999f pd=0.7u as=0.3456p ps=2.64u w=0.36u l=0.5u
X8 VSS.t0 a_671_644# a_1147_68# VPW.t2 nfet_05v0 ad=0.28262p pd=1.87u as=43.8f ps=0.605u w=0.365u l=0.6u
X9 a_671_644# a_47_68# a_503_644# VNW.t5 pfet_05v0 ad=0.3852p pd=2.86u as=61.19999f ps=0.7u w=0.36u l=0.5u
X10 VSS.t3 I.t0 a_47_68# VPW.t0 nfet_05v0 ad=93.59999f pd=0.88u as=0.333p ps=2.57u w=0.36u l=0.6u
X11 Z.t0 a_895_68# VDD.t1 VNW.t3 pfet_05v0 ad=0.5368p pd=3.32u as=0.379p ps=2.37u w=1.22u l=0.5u
R0 VSS.n1 VSS.t1 9.80518
R1 VSS.n2 VSS.n1 7.14859
R2 VSS.n2 VSS.n0 6.35874
R3 VSS.n0 VSS.t2 4.5505
R4 VSS.n0 VSS.t3 4.5505
R5 VSS.n1 VSS.t0 4.48817
R6 VSS VSS.n2 0.05375
R7 Z.n0 Z.t1 8.92356
R8 Z.n0 Z.t0 4.12916
R9 Z Z.n0 0.023
R10 VDD.n1 VDD.t1 11.8234
R11 VDD.n0 VDD.t3 7.0005
R12 VDD.n2 VDD.n1 6.04985
R13 VDD.n2 VDD.n0 5.25874
R14 VDD.n0 VDD.t2 5.05606
R15 VDD.n1 VDD.t0 5.05606
R16 VDD VDD.n2 0.03875
R17 I.n0 I.t1 29.2005
R18 I.n0 I.t0 12.1428
R19 I I.n0 8.19963
R20 VNW.t5 VNW.t1 880.309
R21 VNW.t2 VNW.t3 637.067
R22 VNW.t0 VNW.t4 432.433
R23 VNW.t1 VNW.t2 324.325
R24 VNW.t4 VNW.t5 324.325
R25 VNW VNW.t0 308.88
R26 VPW.t5 VPW.t1 3383.56
R27 VPW.t2 VPW.t3 2448.63
R28 VPW.t0 VPW.t4 1662.1
R29 VPW VPW.t0 1268.84
R30 VPW.t1 VPW.t2 1246.58
R31 VPW.t4 VPW.t5 1246.58
C0 VSS I 0.15704f
C1 VSS a_523_68# 0.00306f
C2 VNW a_671_644# 0.48041f
C3 a_895_68# VSS 0.30438f
C4 Z VSS 0.04629f
C5 a_895_68# a_1147_68# 0.00184f
C6 Z a_1147_68# 0
C7 VSS VDD 0.01202f
C8 a_671_644# a_47_68# 0.10782f
C9 I a_523_68# 0.00145f
C10 a_895_68# I 0
C11 a_503_644# VDD 0.0043f
C12 Z I 0
C13 Z a_523_68# 0
C14 Z a_895_68# 0.20995f
C15 VNW VSS 0.01061f
C16 I VDD 0.02961f
C17 a_895_68# VDD 0.12277f
C18 Z VDD 0.13718f
C19 a_47_68# VSS 0.11439f
C20 a_895_68# a_1127_622# 0.00209f
C21 VNW I 0.23093f
C22 Z a_1127_622# 0
C23 VNW a_895_68# 0.1955f
C24 a_503_644# a_47_68# 0.00165f
C25 a_47_68# a_1147_68# 0
C26 VNW Z 0.05449f
C27 a_671_644# VSS 0.10957f
C28 a_1127_622# VDD 0.00419f
C29 a_47_68# I 0.45257f
C30 VNW VDD 0.23977f
C31 a_47_68# a_523_68# 0
C32 a_895_68# a_47_68# 0.00337f
C33 Z a_47_68# 0
C34 a_671_644# I 0.05468f
C35 a_671_644# a_895_68# 0.54229f
C36 a_47_68# VDD 0.19236f
C37 a_671_644# Z 0.01419f
C38 VNW a_47_68# 0.49981f
C39 a_1147_68# VSS 0.00322f
C40 a_671_644# VDD 0.09605f
C41 VSS VPW 0.71227f
C42 Z VPW 0.20935f
C43 VDD VPW 0.51138f
C44 I VPW 0.63732f
C45 VNW VPW 3.25685f
C46 a_895_68# VPW 0.23227f
C47 a_671_644# VPW 0.46364f
C48 a_47_68# VPW 0.50427f
C49 VNW.t3 VPW 0.40784f
C50 VNW.t2 VPW 0.21699f
C51 VNW.t1 VPW 0.27189f
C52 VNW.t5 VPW 0.27189f
C53 VNW.t4 VPW 0.1708f
C54 VNW.t0 VPW 0.16732f
C55 I.t1 VPW 0.18481f
C56 I.t0 VPW 0.09131f
C57 I.n0 VPW 0.27897f
C58 VDD.t3 VPW 0.0082f
C59 VDD.t2 VPW 0.00592f
C60 VDD.n0 VPW 0.01423f
C61 VDD.t1 VPW 0.06477f
C62 VDD.t0 VPW 0.00592f
C63 VDD.n1 VPW 0.07342f
C64 VDD.n2 VPW 0.54977f
C65 Z.t0 VPW 0.08681f
C66 Z.t1 VPW 0.0689f
C67 Z.n0 VPW 0.19552f
C68 VSS.t2 VPW 0.00562f
C69 VSS.t3 VPW 0.00562f
C70 VSS.n0 VPW 0.01133f
C71 VSS.t1 VPW 0.03909f
C72 VSS.t0 VPW 0.0057f
C73 VSS.n1 VPW 0.06018f
C74 VSS.n2 VPW 0.51933f
.ends

.subckt gf180mcu_fd_sc_mcu7t5v0__fillcap_32 VDD VSS VNW VPW a_1916_375# a_1380_472#
+ a_3260_375# a_36_472# a_932_472# a_2812_375# a_2276_472# a_1828_472# a_3172_472#
+ a_572_375# a_2724_472# a_124_375# a_1468_375# a_1020_375# a_484_472# a_2364_375#
X0 VDD.t6 a_572_375# a_484_472# VNW.t6 pfet_05v0 ad=0.5368p pd=3.32u as=0.5368p ps=3.32u w=1.22u l=1u
X1 VDD.t0 a_2364_375# a_2276_472# VNW.t0 pfet_05v0 ad=0.5368p pd=3.32u as=0.5368p ps=3.32u w=1.22u l=1u
X2 a_572_375# a_484_472# VSS.t6 VPW.t6 nfet_05v0 ad=0.3608p pd=2.52u as=0.3608p ps=2.52u w=0.82u l=1u
X3 VDD.t4 a_1916_375# a_1828_472# VNW.t4 pfet_05v0 ad=0.5368p pd=3.32u as=0.5368p ps=3.32u w=1.22u l=1u
X4 a_124_375# a_36_472# VSS.t4 VPW.t4 nfet_05v0 ad=0.3608p pd=2.52u as=0.3608p ps=2.52u w=0.82u l=1u
X5 a_1916_375# a_1828_472# VSS.t3 VPW.t3 nfet_05v0 ad=0.3608p pd=2.52u as=0.3608p ps=2.52u w=0.82u l=1u
X6 a_1468_375# a_1380_472# VSS.t5 VPW.t5 nfet_05v0 ad=0.3608p pd=2.52u as=0.3608p ps=2.52u w=0.82u l=1u
X7 a_2812_375# a_2724_472# VSS.t7 VPW.t7 nfet_05v0 ad=0.3608p pd=2.52u as=0.3608p ps=2.52u w=0.82u l=1u
X8 VDD.t7 a_3260_375# a_3172_472# VNW.t7 pfet_05v0 ad=0.5368p pd=3.32u as=0.5368p ps=3.32u w=1.22u l=1u
X9 a_2364_375# a_2276_472# VSS.t1 VPW.t1 nfet_05v0 ad=0.3608p pd=2.52u as=0.3608p ps=2.52u w=0.82u l=1u
X10 VDD.t5 a_2812_375# a_2724_472# VNW.t5 pfet_05v0 ad=0.5368p pd=3.32u as=0.5368p ps=3.32u w=1.22u l=1u
X11 a_3260_375# a_3172_472# VSS.t0 VPW.t0 nfet_05v0 ad=0.3608p pd=2.52u as=0.3608p ps=2.52u w=0.82u l=1u
X12 VDD.t3 a_1020_375# a_932_472# VNW.t3 pfet_05v0 ad=0.5368p pd=3.32u as=0.5368p ps=3.32u w=1.22u l=1u
X13 VDD.t1 a_1468_375# a_1380_472# VNW.t1 pfet_05v0 ad=0.5368p pd=3.32u as=0.5368p ps=3.32u w=1.22u l=1u
X14 VDD.t2 a_124_375# a_36_472# VNW.t2 pfet_05v0 ad=0.5368p pd=3.32u as=0.5368p ps=3.32u w=1.22u l=1u
X15 a_1020_375# a_932_472# VSS.t2 VPW.t2 nfet_05v0 ad=0.3608p pd=2.52u as=0.3608p ps=2.52u w=0.82u l=1u
R0 VSS.n0 VSS.t0 8.84732
R1 VSS.n3 VSS.t4 8.84732
R2 VSS.n0 VSS.t7 8.51132
R3 VSS.n1 VSS.t1 8.51132
R4 VSS.n2 VSS.t3 8.51132
R5 VSS.n5 VSS.t5 8.51132
R6 VSS.n4 VSS.t2 8.51132
R7 VSS.n3 VSS.t6 8.51132
R8 VSS.n1 VSS.n0 0.3365
R9 VSS.n2 VSS.n1 0.3365
R10 VSS.n5 VSS.n4 0.3365
R11 VSS.n4 VSS.n3 0.3365
R12 VSS VSS.n5 0.28175
R13 VSS VSS.n2 0.05525
R14 VDD.n3 VDD.t2 4.69635
R15 VDD.n0 VDD.t7 4.69635
R16 VDD.n3 VDD.t6 4.36035
R17 VDD.n4 VDD.t3 4.36035
R18 VDD.n5 VDD.t1 4.36035
R19 VDD.n2 VDD.t4 4.36035
R20 VDD.n1 VDD.t0 4.36035
R21 VDD.n0 VDD.t5 4.36035
R22 VDD.n1 VDD.n0 0.3365
R23 VDD.n2 VDD.n1 0.3365
R24 VDD.n5 VDD.n4 0.3365
R25 VDD.n4 VDD.n3 0.3365
R26 VDD VDD.n2 0.28775
R27 VDD VDD.n5 0.04925
R28 VNW.t5 VNW.t7 864.865
R29 VNW.t0 VNW.t5 864.865
R30 VNW.t4 VNW.t0 864.865
R31 VNW.t1 VNW.t4 864.865
R32 VNW.t3 VNW.t1 864.865
R33 VNW.t6 VNW.t3 864.865
R34 VNW.t2 VNW.t6 864.865
R35 VNW VNW.t2 299.228
R36 VPW.t7 VPW.t0 3324.2
R37 VPW.t1 VPW.t7 3324.2
R38 VPW.t3 VPW.t1 3324.2
R39 VPW.t5 VPW.t3 3324.2
R40 VPW.t2 VPW.t5 3324.2
R41 VPW.t6 VPW.t2 3324.2
R42 VPW.t4 VPW.t6 3324.2
R43 VPW VPW.t4 1157.53
C0 a_484_472# a_932_472# 0.01328f
C1 VSS a_1916_375# 0.13306f
C2 VSS a_932_472# 0.14764f
C3 VNW a_2724_472# 0.0423f
C4 a_2364_375# a_1916_375# 0.0131f
C5 VNW a_1020_375# 0.19577f
C6 VDD a_3172_472# 0.1835f
C7 VSS a_2724_472# 0.14764f
C8 VSS a_1020_375# 0.13306f
C9 VDD a_2812_375# 0.14492f
C10 a_2724_472# a_2364_375# 0.08717f
C11 VDD a_124_375# 0.14169f
C12 VNW a_3260_375# 0.19553f
C13 VNW a_572_375# 0.19577f
C14 a_1468_375# a_1828_472# 0.08717f
C15 VDD a_36_472# 0.09598f
C16 VSS a_3260_375# 0.08206f
C17 a_484_472# a_572_375# 0.30831f
C18 VSS a_572_375# 0.13306f
C19 a_2724_472# a_3172_472# 0.01328f
C20 VNW a_1828_472# 0.0423f
C21 VDD a_1380_472# 0.1835f
C22 a_1468_375# VNW 0.19577f
C23 a_2724_472# a_2812_375# 0.30831f
C24 a_1380_472# a_932_472# 0.01328f
C25 VSS a_1828_472# 0.14764f
C26 VDD a_2276_472# 0.1835f
C27 a_1468_375# VSS 0.13306f
C28 a_2276_472# a_1916_375# 0.08717f
C29 a_3172_472# a_3260_375# 0.30831f
C30 VNW a_484_472# 0.0423f
C31 VNW VSS 0.03529f
C32 a_2812_375# a_3260_375# 0.0131f
C33 a_1380_472# a_1020_375# 0.08717f
C34 a_572_375# a_124_375# 0.0131f
C35 VNW a_2364_375# 0.19577f
C36 VDD a_1916_375# 0.14492f
C37 VDD a_932_472# 0.1835f
C38 VSS a_484_472# 0.14764f
C39 a_2724_472# a_2276_472# 0.01328f
C40 VSS a_2364_375# 0.13306f
C41 VDD a_2724_472# 0.1835f
C42 VNW a_3172_472# 0.04268f
C43 VDD a_1020_375# 0.14492f
C44 VNW a_2812_375# 0.19577f
C45 VNW a_124_375# 0.19448f
C46 a_932_472# a_1020_375# 0.30831f
C47 a_1380_472# a_1828_472# 0.01328f
C48 VSS a_3172_472# 0.1444f
C49 a_1468_375# a_1380_472# 0.30831f
C50 a_484_472# a_124_375# 0.08717f
C51 VSS a_2812_375# 0.13306f
C52 VSS a_124_375# 0.13306f
C53 VDD a_3260_375# 0.14423f
C54 VNW a_36_472# 0.0456f
C55 a_2364_375# a_2812_375# 0.0131f
C56 a_1828_472# a_2276_472# 0.01328f
C57 VDD a_572_375# 0.14492f
C58 VNW a_1380_472# 0.0423f
C59 a_484_472# a_36_472# 0.01328f
C60 VSS a_36_472# 0.14694f
C61 a_932_472# a_572_375# 0.08717f
C62 VNW a_2276_472# 0.0423f
C63 VSS a_1380_472# 0.14764f
C64 VDD a_1828_472# 0.1835f
C65 a_1468_375# VDD 0.14492f
C66 a_3172_472# a_2812_375# 0.08717f
C67 a_1828_472# a_1916_375# 0.30831f
C68 a_1468_375# a_1916_375# 0.0131f
C69 VSS a_2276_472# 0.14764f
C70 VNW VDD 0.55778f
C71 a_572_375# a_1020_375# 0.0131f
C72 a_2276_472# a_2364_375# 0.30831f
C73 VNW a_1916_375# 0.19577f
C74 VDD a_484_472# 0.1835f
C75 VNW a_932_472# 0.0423f
C76 VDD VSS 0.05274f
C77 a_124_375# a_36_472# 0.30831f
C78 a_1468_375# a_1020_375# 0.0131f
C79 VDD a_2364_375# 0.14492f
C80 VSS VPW 1.27478f
C81 VDD VPW 0.89875f
C82 VNW VPW 5.99156f
C83 a_3172_472# VPW 0.21516f
C84 a_2724_472# VPW 0.20251f
C85 a_2276_472# VPW 0.20251f
C86 a_1828_472# VPW 0.20251f
C87 a_1380_472# VPW 0.20251f
C88 a_932_472# VPW 0.20251f
C89 a_484_472# VPW 0.20251f
C90 a_36_472# VPW 0.27314f
C91 a_3260_375# VPW 0.11275f
C92 a_2812_375# VPW 0.05112f
C93 a_2364_375# VPW 0.05112f
C94 a_1916_375# VPW 0.05112f
C95 a_1468_375# VPW 0.05112f
C96 a_1020_375# VPW 0.05112f
C97 a_572_375# VPW 0.05112f
C98 a_124_375# VPW 0.06537f
C99 VNW.t7 VPW 0.3554f
C100 VNW.t5 VPW 0.29817f
C101 VNW.t0 VPW 0.29817f
C102 VNW.t4 VPW 0.29817f
C103 VNW.t1 VPW 0.29817f
C104 VNW.t3 VPW 0.29817f
C105 VNW.t6 VPW 0.29817f
C106 VNW.t2 VPW 0.20066f
C107 VDD.t4 VPW 0.0769f
C108 VDD.t0 VPW 0.0769f
C109 VDD.t5 VPW 0.0769f
C110 VDD.t7 VPW 0.09354f
C111 VDD.n0 VPW 0.5324f
C112 VDD.n1 VPW 0.31641f
C113 VDD.n2 VPW 0.2985f
C114 VDD.t1 VPW 0.0769f
C115 VDD.t3 VPW 0.0769f
C116 VDD.t6 VPW 0.0769f
C117 VDD.t2 VPW 0.10553f
C118 VDD.n3 VPW 0.68797f
C119 VDD.n4 VPW 0.31641f
C120 VDD.n5 VPW 0.21086f
C121 VSS.t3 VPW 0.04613f
C122 VSS.t1 VPW 0.04613f
C123 VSS.t7 VPW 0.04613f
C124 VSS.t0 VPW 0.05783f
C125 VSS.n0 VPW 0.53494f
C126 VSS.n1 VPW 0.2387f
C127 VSS.n2 VPW 0.15331f
C128 VSS.t5 VPW 0.04613f
C129 VSS.t2 VPW 0.04613f
C130 VSS.t6 VPW 0.04613f
C131 VSS.t4 VPW 0.05257f
C132 VSS.n3 VPW 0.40174f
C133 VSS.n4 VPW 0.2387f
C134 VSS.n5 VPW 0.22208f
.ends

.subckt gf180mcu_fd_sc_mcu7t5v0__fillcap_16 VDD VSS VNW VPW a_1380_472# a_36_472#
+ a_932_472# a_572_375# a_124_375# a_1468_375# a_1020_375# a_484_472#
X0 VDD.t2 a_572_375# a_484_472# VNW.t2 pfet_05v0 ad=0.5368p pd=3.32u as=0.5368p ps=3.32u w=1.22u l=1u
X1 a_572_375# a_484_472# VSS.t2 VPW.t2 nfet_05v0 ad=0.3608p pd=2.52u as=0.3608p ps=2.52u w=0.82u l=1u
X2 a_124_375# a_36_472# VSS.t1 VPW.t1 nfet_05v0 ad=0.3608p pd=2.52u as=0.3608p ps=2.52u w=0.82u l=1u
X3 a_1468_375# a_1380_472# VSS.t3 VPW.t3 nfet_05v0 ad=0.3608p pd=2.52u as=0.3608p ps=2.52u w=0.82u l=1u
X4 VDD.t3 a_1020_375# a_932_472# VNW.t3 pfet_05v0 ad=0.5368p pd=3.32u as=0.5368p ps=3.32u w=1.22u l=1u
X5 VDD.t0 a_1468_375# a_1380_472# VNW.t0 pfet_05v0 ad=0.5368p pd=3.32u as=0.5368p ps=3.32u w=1.22u l=1u
X6 VDD.t1 a_124_375# a_36_472# VNW.t1 pfet_05v0 ad=0.5368p pd=3.32u as=0.5368p ps=3.32u w=1.22u l=1u
X7 a_1020_375# a_932_472# VSS.t0 VPW.t0 nfet_05v0 ad=0.3608p pd=2.52u as=0.3608p ps=2.52u w=0.82u l=1u
R0 VSS.n0 VSS.t3 8.84732
R1 VSS.n1 VSS.t1 8.84732
R2 VSS.n0 VSS.t0 8.51132
R3 VSS.n1 VSS.t2 8.51132
R4 VSS VSS.n1 0.2825
R5 VSS VSS.n0 0.0545
R6 VDD.n1 VDD.t1 4.69635
R7 VDD.n0 VDD.t0 4.69635
R8 VDD.n1 VDD.t2 4.36035
R9 VDD.n0 VDD.t3 4.36035
R10 VDD VDD.n0 0.2825
R11 VDD VDD.n1 0.0545
R12 VNW.t3 VNW.t0 864.865
R13 VNW.t2 VNW.t3 864.865
R14 VNW.t1 VNW.t2 864.865
R15 VNW VNW.t1 299.228
R16 VPW.t0 VPW.t3 3324.2
R17 VPW.t2 VPW.t0 3324.2
R18 VPW.t1 VPW.t2 3324.2
R19 VPW VPW.t1 1157.53
C0 a_1020_375# VNW 0.19577f
C1 a_1380_472# a_1020_375# 0.0869f
C2 VSS a_36_472# 0.1523f
C3 VSS a_932_472# 0.15299f
C4 VSS a_1468_375# 0.08285f
C5 a_1020_375# a_932_472# 0.30831f
C6 VSS a_1020_375# 0.13603f
C7 a_1020_375# a_1468_375# 0.01255f
C8 a_124_375# VDD 0.14169f
C9 a_484_472# a_124_375# 0.0869f
C10 a_572_375# a_124_375# 0.01255f
C11 a_484_472# VDD 0.1835f
C12 VNW a_124_375# 0.19448f
C13 a_572_375# VDD 0.14492f
C14 a_484_472# a_572_375# 0.30831f
C15 VNW VDD 0.28421f
C16 a_484_472# VNW 0.0423f
C17 a_1380_472# VDD 0.1835f
C18 a_572_375# VNW 0.19577f
C19 a_124_375# a_36_472# 0.30831f
C20 VSS a_124_375# 0.13603f
C21 a_1380_472# VNW 0.04268f
C22 VDD a_36_472# 0.09598f
C23 VDD a_932_472# 0.1835f
C24 VSS VDD 0.02637f
C25 a_484_472# a_36_472# 0.01328f
C26 a_484_472# a_932_472# 0.01328f
C27 a_484_472# VSS 0.15299f
C28 VDD a_1468_375# 0.14423f
C29 a_572_375# a_932_472# 0.0869f
C30 a_572_375# VSS 0.13603f
C31 VNW a_36_472# 0.0456f
C32 a_1020_375# VDD 0.14492f
C33 VNW a_932_472# 0.0423f
C34 VSS VNW 0.01764f
C35 VNW a_1468_375# 0.19553f
C36 a_1380_472# a_932_472# 0.01328f
C37 a_1380_472# VSS 0.14976f
C38 a_572_375# a_1020_375# 0.01255f
C39 a_1380_472# a_1468_375# 0.30831f
C40 VSS VPW 0.72778f
C41 VDD VPW 0.54672f
C42 VNW VPW 3.20078f
C43 a_1380_472# VPW 0.21516f
C44 a_932_472# VPW 0.20251f
C45 a_484_472# VPW 0.20251f
C46 a_36_472# VPW 0.27314f
C47 a_1468_375# VPW 0.11269f
C48 a_1020_375# VPW 0.05106f
C49 a_572_375# VPW 0.05106f
C50 a_124_375# VPW 0.06485f
C51 VNW.t0 VPW 0.34158f
C52 VNW.t3 VPW 0.28657f
C53 VNW.t2 VPW 0.28657f
C54 VNW.t1 VPW 0.19286f
C55 VDD.t3 VPW 0.07492f
C56 VDD.t0 VPW 0.09114f
C57 VDD.n0 VPW 0.49939f
C58 VDD.t2 VPW 0.07492f
C59 VDD.t1 VPW 0.10282f
C60 VDD.n1 VPW 0.56934f
C61 VSS.t0 VPW 0.04616f
C62 VSS.t3 VPW 0.05789f
C63 VSS.n0 VPW 0.45104f
C64 VSS.t2 VPW 0.04616f
C65 VSS.t1 VPW 0.05263f
C66 VSS.n1 VPW 0.38706f
.ends

.subckt gf180mcu_fd_sc_mcu7t5v0__nand3_1 A3 VDD VSS ZN A1 A2 VNW VPW a_455_68# a_271_68#
X0 ZN.t0 A1.t0 a_455_68# VPW.t1 nfet_05v0 ad=0.3608p pd=2.52u as=0.1722p ps=1.24u w=0.82u l=0.6u
X1 ZN.t3 A3.t1 VDD.t2 VNW.t2 pfet_05v0 ad=0.2561p pd=1.505u as=0.4334p ps=2.85u w=0.985u l=0.5u
X2 VDD.t0 A2.t1 ZN.t1 VNW.t0 pfet_05v0 ad=0.2561p pd=1.505u as=0.2561p ps=1.505u w=0.985u l=0.5u
X3 ZN.t2 A1.t1 VDD.t1 VNW.t1 pfet_05v0 ad=0.4334p pd=2.85u as=0.2561p ps=1.505u w=0.985u l=0.5u
X4 a_271_68# A3.t0 VSS.t0 VPW.t2 nfet_05v0 ad=0.1312p pd=1.14u as=0.3608p ps=2.52u w=0.82u l=0.6u
X5 a_455_68# A2.t0 a_271_68# VPW.t0 nfet_05v0 ad=0.1722p pd=1.24u as=0.1312p ps=1.14u w=0.82u l=0.6u
R0 VSS VSS.t0 8.63325
R1 ZN.n0 ZN.t0 8.84645
R2 ZN.n0 ZN.t2 4.50873
R3 ZN ZN.n1 2.89216
R4 ZN.n1 ZN.t1 1.84822
R5 ZN.n1 ZN.t3 1.84822
R6 ZN ZN.n0 0.215857
R7 VDD VDD.n0 5.38601
R8 VDD VDD.t2 4.92036
R9 VDD.n0 VDD.t1 1.84822
R10 VDD.n0 VDD.t0 1.84822
R11 A1.n0 A1.t1 18.6155
R12 A1.n0 A1.t0 11.8752
R13 A1 A1.n0 8.07453
R14 A2.n0 A2.t1 18.6155
R15 A2.n0 A2.t0 11.8752
R16 A2 A2.n0 8.06425
R17 A3.n0 A3.t0 15.4522
R18 A3.n0 A3.t1 15.0385
R19 A3 A3.n0 8.11161
R20 VNW.t0 VNW.t1 393.822
R21 VNW.t2 VNW.t0 393.822
R22 VNW VNW.t2 254.827
R23 VPW.t0 VPW.t1 1513.7
R24 VPW.t2 VPW.t0 1365.3
R25 VPW VPW.t2 1061.07
C0 ZN A2 0.08568f
C1 A1 VSS 0.08509f
C2 A1 VNW 0.12917f
C3 A3 A2 0.11757f
C4 VSS a_271_68# 0.0071f
C5 ZN A3 0.01751f
C6 A1 A2 0.13304f
C7 A1 ZN 0.3869f
C8 a_271_68# A2 0.00403f
C9 ZN a_271_68# 0.00192f
C10 A1 A3 0
C11 A3 a_271_68# 0
C12 VDD VNW 0.12911f
C13 VDD VSS 0.00873f
C14 a_455_68# VSS 0.00711f
C15 VDD A2 0.02318f
C16 VDD ZN 0.33798f
C17 a_455_68# A2 0.00513f
C18 ZN a_455_68# 0.00293f
C19 VDD A3 0.08911f
C20 A1 VDD 0.02202f
C21 VNW VSS 0.00858f
C22 VDD a_271_68# 0
C23 A1 a_455_68# 0.00498f
C24 VSS A2 0.10556f
C25 VNW A2 0.12119f
C26 ZN VSS 0.06413f
C27 VNW ZN 0.05761f
C28 VSS A3 0.0815f
C29 VNW A3 0.14824f
C30 VSS VPW 0.62897f
C31 ZN VPW 0.36259f
C32 VDD VPW 0.68694f
C33 A1 VPW 0.3556f
C34 A2 VPW 0.30295f
C35 A3 VPW 0.27977f
C36 VNW VPW 1.62291f
C37 VNW.t1 VPW 0.22551f
C38 VNW.t0 VPW 0.12673f
C39 VNW.t2 VPW 0.10437f
C40 A3.t1 VPW 0.1094f
C41 A3.t0 VPW 0.12893f
C42 A3.n0 VPW 0.15229f
C43 A2.t1 VPW 0.14162f
C44 A2.t0 VPW 0.12288f
C45 A2.n0 VPW 0.1737f
C46 A1.t1 VPW 0.18812f
C47 A1.t0 VPW 0.16322f
C48 A1.n0 VPW 0.23073f
C49 VDD.t1 VPW 0.02104f
C50 VDD.t0 VPW 0.02104f
C51 VDD.n0 VPW 0.04546f
C52 VDD.t2 VPW 0.06109f
C53 ZN.t2 VPW 0.09991f
C54 ZN.t0 VPW 0.10242f
C55 ZN.n0 VPW 0.32341f
C56 ZN.t1 VPW 0.04124f
C57 ZN.t3 VPW 0.04124f
C58 ZN.n1 VPW 0.093f
C59 VSS.t0 VPW 0.04223f
.ends

.subckt gf180mcu_fd_sc_mcu7t5v0__xor2_1 VDD VSS Z A1 A2 VNW VPW a_952_68# a_728_472#
+ a_244_604# a_56_604#
X0 a_728_472# a_56_604# VDD.t1 VNW.t2 pfet_05v0 ad=0.3172p pd=1.74u as=0.4005p ps=2.12u w=1.22u l=0.5u
X1 Z.t0 A1.t2 a_728_472# VNW.t4 pfet_05v0 ad=0.3172p pd=1.74u as=0.3172p ps=1.74u w=1.22u l=0.5u
X2 VSS.t3 A1.t1 a_56_604# VPW.t3 nfet_05v0 ad=0.218p pd=1.52u as=93.59999f ps=0.88u w=0.36u l=0.6u
X3 a_728_472# A2.t2 Z.t2 VNW.t1 pfet_05v0 ad=0.5368p pd=3.32u as=0.3172p ps=1.74u w=1.22u l=0.5u
X4 Z.t1 a_56_604# VSS.t2 VPW.t2 nfet_05v0 ad=0.2132p pd=1.34u as=0.218p ps=1.52u w=0.82u l=0.6u
X5 VSS.t1 A2.t0 a_952_68# VPW.t1 nfet_05v0 ad=0.3608p pd=2.52u as=0.1312p ps=1.14u w=0.82u l=0.6u
X6 a_244_604# A2.t3 a_56_604# VNW.t0 pfet_05v0 ad=0.1456p pd=1.08u as=0.2464p ps=2u w=0.56u l=0.5u
X7 a_56_604# A2.t1 VSS.t0 VPW.t0 nfet_05v0 ad=93.59999f pd=0.88u as=0.1584p ps=1.6u w=0.36u l=0.6u
X8 a_952_68# A1.t0 Z.t3 VPW.t4 nfet_05v0 ad=0.1312p pd=1.14u as=0.2132p ps=1.34u w=0.82u l=0.6u
X9 VDD.t0 A1.t3 a_244_604# VNW.t3 pfet_05v0 ad=0.4005p pd=2.12u as=0.1456p ps=1.08u w=0.56u l=0.5u
R0 VSS.n1 VSS.t0 11.3048
R1 VSS VSS.t1 8.7433
R2 VSS.n1 VSS.n0 6.39182
R3 VSS.n0 VSS.t3 6.32611
R4 VSS.n0 VSS.t2 1.99806
R5 VSS VSS.n1 0.0875
R6 Z Z.n1 7.16957
R7 Z Z.n0 5.91011
R8 Z.n1 Z.t3 1.99806
R9 Z.n1 Z.t1 1.99806
R10 Z.n0 Z.t2 1.4923
R11 Z.n0 Z.t0 1.4923
R12 VDD.n0 VDD.t0 8.0005
R13 VDD VDD.n0 2.79294
R14 VDD.n0 VDD.t1 1.72898
R15 A1.n0 A1.t2 22.1195
R16 A1.n1 A1.t3 19.5645
R17 A1.n1 A1.t1 18.4938
R18 A1.n0 A1.t0 9.02817
R19 A1 A1.n1 8.51318
R20 A1 A1.n0 8.35407
R21 A2.n1 A2.t3 19.5645
R22 A2.n1 A2.t1 18.4938
R23 A2.n0 A2.t0 16.7662
R24 A2.n0 A2.t2 14.3815
R25 A2 A2.n0 9.19631
R26 A2 A2.n1 8.16594
R27 VNW.t3 VNW.t2 540.542
R28 VNW.t4 VNW.t1 393.822
R29 VNW.t2 VNW.t4 393.822
R30 VNW.t0 VNW.t3 393.822
R31 VNW VNW.t0 241.314
R32 VPW.t3 VPW.t2 1929.22
R33 VPW.t2 VPW.t4 1662.1
R34 VPW.t0 VPW.t3 1662.1
R35 VPW.t4 VPW.t1 1365.3
R36 VPW VPW.t0 860.731
C0 a_56_604# VSS 0.42232f
C1 a_952_68# Z 0.00863f
C2 a_728_472# A2 0.10235f
C3 VSS a_728_472# 0.00189f
C4 VDD A2 0.23578f
C5 Z VNW 0.02819f
C6 a_56_604# a_728_472# 0.00488f
C7 A1 A2 0.85465f
C8 VSS VDD 0.01126f
C9 VSS A1 0.05563f
C10 a_56_604# VDD 0.11511f
C11 a_56_604# A1 0.35008f
C12 a_952_68# A2 0
C13 VDD a_728_472# 0.59813f
C14 VSS a_952_68# 0.00526f
C15 a_728_472# A1 0.01895f
C16 VNW A2 0.36255f
C17 a_56_604# a_952_68# 0
C18 VSS VNW 0.00951f
C19 VDD A1 0.04523f
C20 a_56_604# VNW 0.15024f
C21 Z A2 0.29991f
C22 a_728_472# VNW 0.00606f
C23 a_244_604# A2 0.00522f
C24 VSS Z 0.2761f
C25 VDD VNW 0.15701f
C26 a_56_604# Z 0.04115f
C27 a_56_604# a_244_604# 0.00257f
C28 A1 VNW 0.32646f
C29 Z a_728_472# 0.31393f
C30 Z VDD 0.00766f
C31 VDD a_244_604# 0.00914f
C32 VSS A2 0.05191f
C33 Z A1 0.2205f
C34 a_56_604# A2 0.39491f
C35 VSS VPW 0.83235f
C36 Z VPW 0.72792f
C37 VDD VPW 1.28579f
C38 A1 VPW 0.75894f
C39 A2 VPW 1.2975f
C40 VNW VPW 2.50507f
C41 a_728_472# VPW 0.00642f
C42 a_56_604# VPW 0.27721f
C43 VNW.t1 VPW 0.30597f
C44 VNW.t4 VPW 0.13995f
C45 VNW.t2 VPW 0.16602f
C46 VNW.t3 VPW 0.16602f
C47 VNW.t0 VPW 0.11285f
C48 A2.t2 VPW 0.21002f
C49 A2.t0 VPW 0.23097f
C50 A2.n0 VPW 0.30399f
C51 A2.t3 VPW 0.17373f
C52 A2.t1 VPW 0.16643f
C53 A2.n1 VPW 0.31937f
C54 A1.t2 VPW 0.2916f
C55 A1.t0 VPW 0.16965f
C56 A1.n0 VPW 0.29562f
C57 A1.t3 VPW 0.1855f
C58 A1.t1 VPW 0.17771f
C59 A1.n1 VPW 0.34313f
C60 VDD.t1 VPW 0.04889f
C61 VDD.t0 VPW 0.04131f
C62 VDD.n0 VPW 0.10931f
C63 Z.t2 VPW 0.07668f
C64 Z.t0 VPW 0.07668f
C65 Z.n0 VPW 0.17246f
C66 Z.t3 VPW 0.05154f
C67 Z.t1 VPW 0.05154f
C68 Z.n1 VPW 0.12331f
C69 VSS.t1 VPW 0.05595f
C70 VSS.t2 VPW 0.01642f
C71 VSS.t3 VPW 0.01124f
C72 VSS.n0 VPW 0.03972f
C73 VSS.t0 VPW 0.02303f
C74 VSS.n1 VPW 0.33305f
.ends

.subckt gf180mcu_fd_sc_mcu7t5v0__dffq_1 VDD Q CLK VSS D VNW VPW a_2011_527# a_448_472#
+ a_880_527# a_36_151# a_2304_115# a_2256_159# a_1328_159# a_2296_527# a_1348_527#
+ a_1004_159# a_1376_115# a_836_159#
X0 VSS.t0 CLK.t0 a_36_151# VPW.t8 nfet_05v0 ad=0.1053p pd=0.925u as=0.1782p ps=1.69u w=0.405u l=0.6u
X1 Q.t0 a_2304_115# VSS.t6 VPW.t11 nfet_05v0 ad=0.3608p pd=2.52u as=0.3608p ps=2.52u w=0.82u l=0.6u
X2 a_2304_115# a_2011_527# VSS.t5 VPW.t9 nfet_05v0 ad=0.176p pd=1.68u as=0.142p ps=1.14u w=0.4u l=0.6u
X3 a_1004_159# D.t0 a_836_159# VPW.t3 nfet_05v0 ad=0.207p pd=1.51u as=43.2f ps=0.6u w=0.36u l=0.6u
X4 a_1004_159# D.t1 a_880_527# VNW.t3 pfet_05v0 ad=0.1872p pd=1.4u as=54f ps=0.66u w=0.36u l=0.5u
X5 a_2011_527# a_36_151# a_1376_115# VNW.t6 pfet_05v0 ad=0.1665p pd=1.285u as=0.1791p ps=1.355u w=0.36u l=0.5u
X6 a_2296_527# a_448_472# a_2011_527# VNW.t2 pfet_05v0 ad=50.4f pd=0.64u as=0.1665p ps=1.285u w=0.36u l=0.5u
X7 a_1376_115# a_1004_159# VDD.t3 VNW.t7 pfet_05v0 ad=0.1791p pd=1.355u as=0.1044p ps=0.94u w=0.36u l=0.5u
X8 VDD.t4 CLK.t1 a_36_151# VNW.t8 pfet_05v0 ad=0.2249p pd=1.385u as=0.3806p ps=2.61u w=0.865u l=0.5u
X9 VSS.t1 a_1376_115# a_1328_159# VPW.t0 nfet_05v0 ad=0.2637p pd=1.825u as=43.2f ps=0.6u w=0.36u l=0.6u
X10 a_2011_527# a_448_472# a_1376_115# VPW.t2 nfet_05v0 ad=93.59999f pd=0.88u as=93.59999f ps=0.88u w=0.36u l=0.6u
X11 a_448_472# a_36_151# VDD.t2 VNW.t4 pfet_05v0 ad=0.3806p pd=2.61u as=0.2249p ps=1.385u w=0.865u l=0.5u
X12 Q.t1 a_2304_115# VDD.t6 VNW.t11 pfet_05v0 ad=0.5368p pd=3.32u as=0.5368p ps=3.32u w=1.22u l=0.5u
X13 a_1376_115# a_1004_159# VSS.t4 VPW.t7 nfet_05v0 ad=93.59999f pd=0.88u as=0.2637p ps=1.825u w=0.36u l=0.6u
X14 VSS.t7 a_2304_115# a_2256_159# VPW.t10 nfet_05v0 ad=0.142p pd=1.14u as=43.2f ps=0.6u w=0.36u l=0.6u
X15 a_836_159# a_36_151# VSS.t3 VPW.t5 nfet_05v0 ad=43.2f pd=0.6u as=0.1584p ps=1.6u w=0.36u l=0.6u
X16 a_448_472# a_36_151# VSS.t2 VPW.t4 nfet_05v0 ad=0.1782p pd=1.69u as=0.1053p ps=0.925u w=0.405u l=0.6u
X17 a_2256_159# a_36_151# a_2011_527# VPW.t6 nfet_05v0 ad=43.2f pd=0.6u as=93.59999f ps=0.88u w=0.36u l=0.6u
X18 a_880_527# a_448_472# VDD.t1 VNW.t1 pfet_05v0 ad=54f pd=0.66u as=0.4554p ps=3.25u w=0.36u l=0.5u
X19 a_1348_527# a_36_151# a_1004_159# VNW.t5 pfet_05v0 ad=43.2f pd=0.6u as=0.1872p ps=1.4u w=0.36u l=0.5u
X20 a_1328_159# a_448_472# a_1004_159# VPW.t1 nfet_05v0 ad=43.2f pd=0.6u as=0.207p ps=1.51u w=0.36u l=0.6u
X21 VDD.t0 a_1376_115# a_1348_527# VNW.t0 pfet_05v0 ad=0.1044p pd=0.94u as=43.2f ps=0.6u w=0.36u l=0.5u
X22 VDD.t7 a_2304_115# a_2296_527# VNW.t10 pfet_05v0 ad=0.23p pd=1.54u as=50.4f ps=0.64u w=0.36u l=0.5u
X23 a_2304_115# a_2011_527# VDD.t5 VNW.t9 pfet_05v0 ad=0.352p pd=2.48u as=0.23p ps=1.54u w=0.8u l=0.5u
R0 Q Q.t0 8.69622
R1 Q Q.t1 6.72245
R2 VSS.n4 VSS.n1 12.033
R3 VSS.n5 VSS.t3 11.0292
R4 VSS.n3 VSS.t6 8.75341
R5 VSS.n1 VSS.t4 8.4005
R6 VSS.n1 VSS.t1 8.4005
R7 VSS.n2 VSS.t7 8.0855
R8 VSS.n3 VSS.n2 6.54898
R9 VSS.n6 VSS.n0 6.46859
R10 VSS.n2 VSS.t5 4.0955
R11 VSS.n0 VSS.t2 4.04494
R12 VSS.n0 VSS.t0 4.04494
R13 VSS.n4 VSS.n3 0.6965
R14 VSS.n5 VSS.n4 0.6965
R15 VSS.n6 VSS.n5 0.2765
R16 VSS VSS.n6 0.0125
R17 D.n0 D.t1 19.6418
R18 D D.n0 8.62301
R19 D.n0 D.t0 5.66793
R20 CLK.n0 CLK.t0 13.907
R21 CLK.n0 CLK.t1 12.0455
R22 CLK CLK.n0 8.01471
R23 VDD.n5 VDD.t1 21.6375
R24 VDD.n2 VDD.t7 7.40883
R25 VDD.n1 VDD.t0 6.22272
R26 VDD.n3 VDD.n2 5.49789
R27 VDD.n4 VDD.n1 5.41359
R28 VDD.n6 VDD.n0 5.35271
R29 VDD.n1 VDD.t3 5.05606
R30 VDD.n3 VDD.t6 4.55874
R31 VDD.n2 VDD.t5 2.2755
R32 VDD.n0 VDD.t2 2.10455
R33 VDD.n0 VDD.t4 2.10455
R34 VDD.n4 VDD.n3 0.7415
R35 VDD.n5 VDD.n4 0.6575
R36 VDD.n6 VDD.n5 0.2915
R37 VDD VDD.n6 0.0125
R38 VNW.t4 VNW.t1 833.977
R39 VNW.t9 VNW.t11 671.816
R40 VNW.t7 VNW.t6 577.221
R41 VNW.t6 VNW.t2 550.193
R42 VNW.t10 VNW.t9 478.764
R43 VNW.t0 VNW.t7 416.988
R44 VNW.t8 VNW.t4 393.822
R45 VNW.t2 VNW.t10 301.159
R46 VNW.t5 VNW.t0 285.714
R47 VNW.t1 VNW.n0 276.062
R48 VNW VNW.t8 241.314
R49 VNW.n0 VNW.t5 142.857
R50 VNW.n0 VNW.t3 28.8573
R51 VPW.t9 VPW.t11 2879
R52 VPW.t4 VPW.t5 2730.59
R53 VPW.t3 VPW.t1 2404.11
R54 VPW.t0 VPW.t7 2315.07
R55 VPW.t10 VPW.t9 1988.58
R56 VPW.t2 VPW.t6 1662.1
R57 VPW.t7 VPW.t2 1662.1
R58 VPW.t8 VPW.t4 1662.1
R59 VPW.t6 VPW.t10 1246.58
R60 VPW.t1 VPW.t0 1246.58
R61 VPW.t5 VPW.t3 1246.58
R62 VPW VPW.t8 860.731
C0 VDD a_880_527# 0
C1 a_1004_159# VSS 0.01386f
C2 VDD D 0.00349f
C3 VNW VSS 0.01078f
C4 Q a_2304_115# 0.17225f
C5 D VSS 0.00349f
C6 a_36_151# CLK 0.48569f
C7 VDD CLK 0.02031f
C8 a_1328_159# a_1376_115# 0
C9 a_2256_159# a_448_472# 0
C10 VDD Q 0.15434f
C11 CLK VSS 0.02194f
C12 a_2256_159# a_2011_527# 0.00232f
C13 VSS Q 0.10956f
C14 a_1328_159# VSS 0.00147f
C15 a_448_472# a_2296_527# 0
C16 a_2011_527# a_2296_527# 0.00277f
C17 a_36_151# a_1348_527# 0
C18 a_448_472# a_2011_527# 0.41635f
C19 VDD a_1348_527# 0.00246f
C20 a_448_472# a_1004_159# 0.83991f
C21 VNW a_448_472# 0.42529f
C22 a_36_151# a_836_159# 0
C23 a_448_472# a_880_527# 0
C24 a_1004_159# a_2011_527# 0
C25 a_448_472# D 0.24298f
C26 VNW a_2011_527# 0.24182f
C27 a_36_151# a_1376_115# 0.08109f
C28 a_36_151# a_2304_115# 0.03873f
C29 CLK a_448_472# 0.00119f
C30 VNW a_1004_159# 0.24039f